Circuit: * E:\OneDrive\Shawn\circuitstudio projects\Isolated Current Sense\MelansonTech Isolated Current Sense\Simulation\Amplifer.asc

WARNING: Less than two connections to node NC_01.  This node is used by R10.
Direct Newton iteration for .op point succeeded.

Date: Thu Apr 18 21:26:40 2024
Total elapsed time: 0.228 seconds.

tnom = 27
temp = 27
method = trap
totiter = 5
traniter = 0
tranpoints = 0
accept = 0
rejected = 0
matrix size = 241
fillins = 305
solver = Normal
Matrix Compiler1:    1626 opcodes
Matrix Compiler2: 25.38 KB object code size
