LTspice 24.0.12 for Windows
Circuit: * C:\Users\shawn\OneDrive\ProjectGitReleases\Melanson-Tech-Isolated-Shunt-Amplifier\Simulation\Amplifer.asc
Start Time: Sun Apr 13 17:47:16 2025
solver = Normal
Maximum thread count: 24
tnom = 27
temp = 27
method = modified trap
WARNING: Less than two connections to node nc_01.  This node is used by v2.
Direct Newton iteration for .op point succeeded.
Total elapsed time: 0.490 seconds.

